Circuit: * D:\ROV 2019\Spice\Reverse Voltage Protection Full System.asc

Instance "m:m3:1": Width narrower than recommended for a level 3 MOSFET.
Instance "m:m2:1": Width narrower than recommended for a level 3 MOSFET.
Instance "m:m1:1": Width narrower than recommended for a level 3 MOSFET.

Date: Sat Oct 20 11:14:17 2018
Total elapsed time: 0.167 seconds.

tnom = 27
temp = 27
method = trap
totiter = 2441
traniter = 0
tranpoints = 0
accept = 0
rejected = 0
matrix size = 40
fillins = 47
solver = Normal
Matrix Compiler1: 5.30 KB object code size  1.8/1.0/[0.5]
Matrix Compiler2: 4.15 KB object code size  1.4/0.9/[0.4]

